<nodes>
<node id="n0" x="0" y="0" type="traffic_light"/>
<node id="n1" x="0" y="200" type="traffic_light"/>
<node id="n2" x="0" y="400" type="traffic_light"/>
<node id="n3" x="0" y="600" type="traffic_light"/>
<node id="n4" x="0" y="800" type="traffic_light"/>
<node id="n5" x="0" y="1000" type="traffic_light"/>
<node id="n6" x="0" y="1200" type="traffic_light"/>
<node id="n7" x="0" y="1400" type="traffic_light"/>
<node id="n8" x="0" y="1600" type="traffic_light"/>
<node id="n9" x="0" y="1800" type="traffic_light"/>
<node id="n10" x="200" y="0" type="traffic_light"/>
<node id="n11" x="200" y="200" type="traffic_light"/>
<node id="n12" x="200" y="400" type="traffic_light"/>
<node id="n13" x="200" y="600" type="traffic_light"/>
<node id="n14" x="200" y="800" type="traffic_light"/>
<node id="n15" x="200" y="1000" type="traffic_light"/>
<node id="n16" x="200" y="1200" type="traffic_light"/>
<node id="n17" x="200" y="1400" type="traffic_light"/>
<node id="n18" x="200" y="1600" type="traffic_light"/>
<node id="n19" x="200" y="1800" type="traffic_light"/>
<node id="n20" x="400" y="0" type="traffic_light"/>
<node id="n21" x="400" y="200" type="traffic_light"/>
<node id="n22" x="400" y="400" type="traffic_light"/>
<node id="n23" x="400" y="600" type="traffic_light"/>
<node id="n24" x="400" y="800" type="traffic_light"/>
<node id="n25" x="400" y="1000" type="traffic_light"/>
<node id="n26" x="400" y="1200" type="traffic_light"/>
<node id="n27" x="400" y="1400" type="traffic_light"/>
<node id="n28" x="400" y="1600" type="traffic_light"/>
<node id="n29" x="400" y="1800" type="traffic_light"/>
<node id="n30" x="600" y="0" type="traffic_light"/>
<node id="n31" x="600" y="200" type="traffic_light"/>
<node id="n32" x="600" y="400" type="traffic_light"/>
<node id="n33" x="600" y="600" type="traffic_light"/>
<node id="n34" x="600" y="800" type="traffic_light"/>
<node id="n35" x="600" y="1000" type="traffic_light"/>
<node id="n36" x="600" y="1200" type="traffic_light"/>
<node id="n37" x="600" y="1400" type="traffic_light"/>
<node id="n38" x="600" y="1600" type="traffic_light"/>
<node id="n39" x="600" y="1800" type="traffic_light"/>
<node id="n40" x="800" y="0" type="traffic_light"/>
<node id="n41" x="800" y="200" type="traffic_light"/>
<node id="n42" x="800" y="400" type="traffic_light"/>
<node id="n43" x="800" y="600" type="traffic_light"/>
<node id="n44" x="800" y="800" type="traffic_light"/>
<node id="n45" x="800" y="1000" type="traffic_light"/>
<node id="n46" x="800" y="1200" type="traffic_light"/>
<node id="n47" x="800" y="1400" type="traffic_light"/>
<node id="n48" x="800" y="1600" type="traffic_light"/>
<node id="n49" x="800" y="1800" type="traffic_light"/>
<node id="n50" x="1000" y="0" type="traffic_light"/>
<node id="n51" x="1000" y="200" type="traffic_light"/>
<node id="n52" x="1000" y="400" type="traffic_light"/>
<node id="n53" x="1000" y="600" type="traffic_light"/>
<node id="n54" x="1000" y="800" type="traffic_light"/>
<node id="n55" x="1000" y="1000" type="traffic_light"/>
<node id="n56" x="1000" y="1200" type="traffic_light"/>
<node id="n57" x="1000" y="1400" type="traffic_light"/>
<node id="n58" x="1000" y="1600" type="traffic_light"/>
<node id="n59" x="1000" y="1800" type="traffic_light"/>
<node id="n60" x="1200" y="0" type="traffic_light"/>
<node id="n61" x="1200" y="200" type="traffic_light"/>
<node id="n62" x="1200" y="400" type="traffic_light"/>
<node id="n63" x="1200" y="600" type="traffic_light"/>
<node id="n64" x="1200" y="800" type="traffic_light"/>
<node id="n65" x="1200" y="1000" type="traffic_light"/>
<node id="n66" x="1200" y="1200" type="traffic_light"/>
<node id="n67" x="1200" y="1400" type="traffic_light"/>
<node id="n68" x="1200" y="1600" type="traffic_light"/>
<node id="n69" x="1200" y="1800" type="traffic_light"/>
<node id="n70" x="1400" y="0" type="traffic_light"/>
<node id="n71" x="1400" y="200" type="traffic_light"/>
<node id="n72" x="1400" y="400" type="traffic_light"/>
<node id="n73" x="1400" y="600" type="traffic_light"/>
<node id="n74" x="1400" y="800" type="traffic_light"/>
<node id="n75" x="1400" y="1000" type="traffic_light"/>
<node id="n76" x="1400" y="1200" type="traffic_light"/>
<node id="n77" x="1400" y="1400" type="traffic_light"/>
<node id="n78" x="1400" y="1600" type="traffic_light"/>
<node id="n79" x="1400" y="1800" type="traffic_light"/>
<node id="n80" x="1600" y="0" type="traffic_light"/>
<node id="n81" x="1600" y="200" type="traffic_light"/>
<node id="n82" x="1600" y="400" type="traffic_light"/>
<node id="n83" x="1600" y="600" type="traffic_light"/>
<node id="n84" x="1600" y="800" type="traffic_light"/>
<node id="n85" x="1600" y="1000" type="traffic_light"/>
<node id="n86" x="1600" y="1200" type="traffic_light"/>
<node id="n87" x="1600" y="1400" type="traffic_light"/>
<node id="n88" x="1600" y="1600" type="traffic_light"/>
<node id="n89" x="1600" y="1800" type="traffic_light"/>
<node id="n90" x="1800" y="0" type="traffic_light"/>
<node id="n91" x="1800" y="200" type="traffic_light"/>
<node id="n92" x="1800" y="400" type="traffic_light"/>
<node id="n93" x="1800" y="600" type="traffic_light"/>
<node id="n94" x="1800" y="800" type="traffic_light"/>
<node id="n95" x="1800" y="1000" type="traffic_light"/>
<node id="n96" x="1800" y="1200" type="traffic_light"/>
<node id="n97" x="1800" y="1400" type="traffic_light"/>
<node id="n98" x="1800" y="1600" type="traffic_light"/>
<node id="n99" x="1800" y="1800" type="traffic_light"/>
</nodes>