<edges>
<edge id="e0-10" from="n0" to="n10" type="2L30"/>
<edge id="e0-1" from="n0" to="n1" type="2L30"/>
<edge id="e1-11" from="n1" to="n11" type="2L30"/>
<edge id="e1-0" from="n1" to="n0" type="2L30"/>
<edge id="e1-2" from="n1" to="n2" type="2L30"/>
<edge id="e2-12" from="n2" to="n12" type="2L30"/>
<edge id="e2-1" from="n2" to="n1" type="2L30"/>
<edge id="e2-3" from="n2" to="n3" type="2L30"/>
<edge id="e3-13" from="n3" to="n13" type="2L30"/>
<edge id="e3-2" from="n3" to="n2" type="2L30"/>
<edge id="e3-4" from="n3" to="n4" type="2L30"/>
<edge id="e4-14" from="n4" to="n14" type="2L30"/>
<edge id="e4-3" from="n4" to="n3" type="2L30"/>
<edge id="e4-5" from="n4" to="n5" type="2L30"/>
<edge id="e5-15" from="n5" to="n15" type="2L30"/>
<edge id="e5-4" from="n5" to="n4" type="2L30"/>
<edge id="e5-6" from="n5" to="n6" type="2L30"/>
<edge id="e6-16" from="n6" to="n16" type="2L30"/>
<edge id="e6-5" from="n6" to="n5" type="2L30"/>
<edge id="e6-7" from="n6" to="n7" type="2L30"/>
<edge id="e7-17" from="n7" to="n17" type="2L30"/>
<edge id="e7-6" from="n7" to="n6" type="2L30"/>
<edge id="e7-8" from="n7" to="n8" type="2L30"/>
<edge id="e8-18" from="n8" to="n18" type="2L30"/>
<edge id="e8-7" from="n8" to="n7" type="2L30"/>
<edge id="e8-9" from="n8" to="n9" type="2L30"/>
<edge id="e9-19" from="n9" to="n19" type="2L30"/>
<edge id="e9-8" from="n9" to="n8" type="2L30"/>
<edge id="e10-0" from="n10" to="n0" type="2L30"/>
<edge id="e10-20" from="n10" to="n20" type="2L30"/>
<edge id="e10-11" from="n10" to="n11" type="2L30"/>
<edge id="e11-1" from="n11" to="n1" type="2L30"/>
<edge id="e11-21" from="n11" to="n21" type="2L30"/>
<edge id="e11-10" from="n11" to="n10" type="2L30"/>
<edge id="e11-12" from="n11" to="n12" type="2L30"/>
<edge id="e12-2" from="n12" to="n2" type="2L30"/>
<edge id="e12-22" from="n12" to="n22" type="2L30"/>
<edge id="e12-11" from="n12" to="n11" type="2L30"/>
<edge id="e12-13" from="n12" to="n13" type="2L30"/>
<edge id="e13-3" from="n13" to="n3" type="2L30"/>
<edge id="e13-23" from="n13" to="n23" type="2L30"/>
<edge id="e13-12" from="n13" to="n12" type="2L30"/>
<edge id="e13-14" from="n13" to="n14" type="2L30"/>
<edge id="e14-4" from="n14" to="n4" type="2L30"/>
<edge id="e14-24" from="n14" to="n24" type="2L30"/>
<edge id="e14-13" from="n14" to="n13" type="2L30"/>
<edge id="e14-15" from="n14" to="n15" type="2L30"/>
<edge id="e15-5" from="n15" to="n5" type="2L30"/>
<edge id="e15-25" from="n15" to="n25" type="2L30"/>
<edge id="e15-14" from="n15" to="n14" type="2L30"/>
<edge id="e15-16" from="n15" to="n16" type="2L30"/>
<edge id="e16-6" from="n16" to="n6" type="2L30"/>
<edge id="e16-26" from="n16" to="n26" type="2L30"/>
<edge id="e16-15" from="n16" to="n15" type="2L30"/>
<edge id="e16-17" from="n16" to="n17" type="2L30"/>
<edge id="e17-7" from="n17" to="n7" type="2L30"/>
<edge id="e17-27" from="n17" to="n27" type="2L30"/>
<edge id="e17-16" from="n17" to="n16" type="2L30"/>
<edge id="e17-18" from="n17" to="n18" type="2L30"/>
<edge id="e18-8" from="n18" to="n8" type="2L30"/>
<edge id="e18-28" from="n18" to="n28" type="2L30"/>
<edge id="e18-17" from="n18" to="n17" type="2L30"/>
<edge id="e18-19" from="n18" to="n19" type="2L30"/>
<edge id="e19-9" from="n19" to="n9" type="2L30"/>
<edge id="e19-29" from="n19" to="n29" type="2L30"/>
<edge id="e19-18" from="n19" to="n18" type="2L30"/>
<edge id="e20-10" from="n20" to="n10" type="2L30"/>
<edge id="e20-30" from="n20" to="n30" type="2L30"/>
<edge id="e20-21" from="n20" to="n21" type="2L30"/>
<edge id="e21-11" from="n21" to="n11" type="2L30"/>
<edge id="e21-31" from="n21" to="n31" type="2L30"/>
<edge id="e21-20" from="n21" to="n20" type="2L30"/>
<edge id="e21-22" from="n21" to="n22" type="2L30"/>
<edge id="e22-12" from="n22" to="n12" type="2L30"/>
<edge id="e22-32" from="n22" to="n32" type="2L30"/>
<edge id="e22-21" from="n22" to="n21" type="2L30"/>
<edge id="e22-23" from="n22" to="n23" type="2L30"/>
<edge id="e23-13" from="n23" to="n13" type="2L30"/>
<edge id="e23-33" from="n23" to="n33" type="2L30"/>
<edge id="e23-22" from="n23" to="n22" type="2L30"/>
<edge id="e23-24" from="n23" to="n24" type="2L30"/>
<edge id="e24-14" from="n24" to="n14" type="2L30"/>
<edge id="e24-34" from="n24" to="n34" type="2L30"/>
<edge id="e24-23" from="n24" to="n23" type="2L30"/>
<edge id="e24-25" from="n24" to="n25" type="2L30"/>
<edge id="e25-15" from="n25" to="n15" type="2L30"/>
<edge id="e25-35" from="n25" to="n35" type="2L30"/>
<edge id="e25-24" from="n25" to="n24" type="2L30"/>
<edge id="e25-26" from="n25" to="n26" type="2L30"/>
<edge id="e26-16" from="n26" to="n16" type="2L30"/>
<edge id="e26-36" from="n26" to="n36" type="2L30"/>
<edge id="e26-25" from="n26" to="n25" type="2L30"/>
<edge id="e26-27" from="n26" to="n27" type="2L30"/>
<edge id="e27-17" from="n27" to="n17" type="2L30"/>
<edge id="e27-37" from="n27" to="n37" type="2L30"/>
<edge id="e27-26" from="n27" to="n26" type="2L30"/>
<edge id="e27-28" from="n27" to="n28" type="2L30"/>
<edge id="e28-18" from="n28" to="n18" type="2L30"/>
<edge id="e28-38" from="n28" to="n38" type="2L30"/>
<edge id="e28-27" from="n28" to="n27" type="2L30"/>
<edge id="e28-29" from="n28" to="n29" type="2L30"/>
<edge id="e29-19" from="n29" to="n19" type="2L30"/>
<edge id="e29-39" from="n29" to="n39" type="2L30"/>
<edge id="e29-28" from="n29" to="n28" type="2L30"/>
<edge id="e30-20" from="n30" to="n20" type="2L30"/>
<edge id="e30-40" from="n30" to="n40" type="2L30"/>
<edge id="e30-31" from="n30" to="n31" type="2L30"/>
<edge id="e31-21" from="n31" to="n21" type="2L30"/>
<edge id="e31-41" from="n31" to="n41" type="2L30"/>
<edge id="e31-30" from="n31" to="n30" type="2L30"/>
<edge id="e31-32" from="n31" to="n32" type="2L30"/>
<edge id="e32-22" from="n32" to="n22" type="2L30"/>
<edge id="e32-42" from="n32" to="n42" type="2L30"/>
<edge id="e32-31" from="n32" to="n31" type="2L30"/>
<edge id="e32-33" from="n32" to="n33" type="2L30"/>
<edge id="e33-23" from="n33" to="n23" type="2L30"/>
<edge id="e33-43" from="n33" to="n43" type="2L30"/>
<edge id="e33-32" from="n33" to="n32" type="2L30"/>
<edge id="e33-34" from="n33" to="n34" type="2L30"/>
<edge id="e34-24" from="n34" to="n24" type="2L30"/>
<edge id="e34-44" from="n34" to="n44" type="2L30"/>
<edge id="e34-33" from="n34" to="n33" type="2L30"/>
<edge id="e34-35" from="n34" to="n35" type="2L30"/>
<edge id="e35-25" from="n35" to="n25" type="2L30"/>
<edge id="e35-45" from="n35" to="n45" type="2L30"/>
<edge id="e35-34" from="n35" to="n34" type="2L30"/>
<edge id="e35-36" from="n35" to="n36" type="2L30"/>
<edge id="e36-26" from="n36" to="n26" type="2L30"/>
<edge id="e36-46" from="n36" to="n46" type="2L30"/>
<edge id="e36-35" from="n36" to="n35" type="2L30"/>
<edge id="e36-37" from="n36" to="n37" type="2L30"/>
<edge id="e37-27" from="n37" to="n27" type="2L30"/>
<edge id="e37-47" from="n37" to="n47" type="2L30"/>
<edge id="e37-36" from="n37" to="n36" type="2L30"/>
<edge id="e37-38" from="n37" to="n38" type="2L30"/>
<edge id="e38-28" from="n38" to="n28" type="2L30"/>
<edge id="e38-48" from="n38" to="n48" type="2L30"/>
<edge id="e38-37" from="n38" to="n37" type="2L30"/>
<edge id="e38-39" from="n38" to="n39" type="2L30"/>
<edge id="e39-29" from="n39" to="n29" type="2L30"/>
<edge id="e39-49" from="n39" to="n49" type="2L30"/>
<edge id="e39-38" from="n39" to="n38" type="2L30"/>
<edge id="e40-30" from="n40" to="n30" type="2L30"/>
<edge id="e40-50" from="n40" to="n50" type="2L30"/>
<edge id="e40-41" from="n40" to="n41" type="2L30"/>
<edge id="e41-31" from="n41" to="n31" type="2L30"/>
<edge id="e41-51" from="n41" to="n51" type="2L30"/>
<edge id="e41-40" from="n41" to="n40" type="2L30"/>
<edge id="e41-42" from="n41" to="n42" type="2L30"/>
<edge id="e42-32" from="n42" to="n32" type="2L30"/>
<edge id="e42-52" from="n42" to="n52" type="2L30"/>
<edge id="e42-41" from="n42" to="n41" type="2L30"/>
<edge id="e42-43" from="n42" to="n43" type="2L30"/>
<edge id="e43-33" from="n43" to="n33" type="2L30"/>
<edge id="e43-53" from="n43" to="n53" type="2L30"/>
<edge id="e43-42" from="n43" to="n42" type="2L30"/>
<edge id="e43-44" from="n43" to="n44" type="2L30"/>
<edge id="e44-34" from="n44" to="n34" type="2L30"/>
<edge id="e44-54" from="n44" to="n54" type="2L30"/>
<edge id="e44-43" from="n44" to="n43" type="2L30"/>
<edge id="e44-45" from="n44" to="n45" type="2L30"/>
<edge id="e45-35" from="n45" to="n35" type="2L30"/>
<edge id="e45-55" from="n45" to="n55" type="2L30"/>
<edge id="e45-44" from="n45" to="n44" type="2L30"/>
<edge id="e45-46" from="n45" to="n46" type="2L30"/>
<edge id="e46-36" from="n46" to="n36" type="2L30"/>
<edge id="e46-56" from="n46" to="n56" type="2L30"/>
<edge id="e46-45" from="n46" to="n45" type="2L30"/>
<edge id="e46-47" from="n46" to="n47" type="2L30"/>
<edge id="e47-37" from="n47" to="n37" type="2L30"/>
<edge id="e47-57" from="n47" to="n57" type="2L30"/>
<edge id="e47-46" from="n47" to="n46" type="2L30"/>
<edge id="e47-48" from="n47" to="n48" type="2L30"/>
<edge id="e48-38" from="n48" to="n38" type="2L30"/>
<edge id="e48-58" from="n48" to="n58" type="2L30"/>
<edge id="e48-47" from="n48" to="n47" type="2L30"/>
<edge id="e48-49" from="n48" to="n49" type="2L30"/>
<edge id="e49-39" from="n49" to="n39" type="2L30"/>
<edge id="e49-59" from="n49" to="n59" type="2L30"/>
<edge id="e49-48" from="n49" to="n48" type="2L30"/>
<edge id="e50-40" from="n50" to="n40" type="2L30"/>
<edge id="e50-60" from="n50" to="n60" type="2L30"/>
<edge id="e50-51" from="n50" to="n51" type="2L30"/>
<edge id="e51-41" from="n51" to="n41" type="2L30"/>
<edge id="e51-61" from="n51" to="n61" type="2L30"/>
<edge id="e51-50" from="n51" to="n50" type="2L30"/>
<edge id="e51-52" from="n51" to="n52" type="2L30"/>
<edge id="e52-42" from="n52" to="n42" type="2L30"/>
<edge id="e52-62" from="n52" to="n62" type="2L30"/>
<edge id="e52-51" from="n52" to="n51" type="2L30"/>
<edge id="e52-53" from="n52" to="n53" type="2L30"/>
<edge id="e53-43" from="n53" to="n43" type="2L30"/>
<edge id="e53-63" from="n53" to="n63" type="2L30"/>
<edge id="e53-52" from="n53" to="n52" type="2L30"/>
<edge id="e53-54" from="n53" to="n54" type="2L30"/>
<edge id="e54-44" from="n54" to="n44" type="2L30"/>
<edge id="e54-64" from="n54" to="n64" type="2L30"/>
<edge id="e54-53" from="n54" to="n53" type="2L30"/>
<edge id="e54-55" from="n54" to="n55" type="2L30"/>
<edge id="e55-45" from="n55" to="n45" type="2L30"/>
<edge id="e55-65" from="n55" to="n65" type="2L30"/>
<edge id="e55-54" from="n55" to="n54" type="2L30"/>
<edge id="e55-56" from="n55" to="n56" type="2L30"/>
<edge id="e56-46" from="n56" to="n46" type="2L30"/>
<edge id="e56-66" from="n56" to="n66" type="2L30"/>
<edge id="e56-55" from="n56" to="n55" type="2L30"/>
<edge id="e56-57" from="n56" to="n57" type="2L30"/>
<edge id="e57-47" from="n57" to="n47" type="2L30"/>
<edge id="e57-67" from="n57" to="n67" type="2L30"/>
<edge id="e57-56" from="n57" to="n56" type="2L30"/>
<edge id="e57-58" from="n57" to="n58" type="2L30"/>
<edge id="e58-48" from="n58" to="n48" type="2L30"/>
<edge id="e58-68" from="n58" to="n68" type="2L30"/>
<edge id="e58-57" from="n58" to="n57" type="2L30"/>
<edge id="e58-59" from="n58" to="n59" type="2L30"/>
<edge id="e59-49" from="n59" to="n49" type="2L30"/>
<edge id="e59-69" from="n59" to="n69" type="2L30"/>
<edge id="e59-58" from="n59" to="n58" type="2L30"/>
<edge id="e60-50" from="n60" to="n50" type="2L30"/>
<edge id="e60-70" from="n60" to="n70" type="2L30"/>
<edge id="e60-61" from="n60" to="n61" type="2L30"/>
<edge id="e61-51" from="n61" to="n51" type="2L30"/>
<edge id="e61-71" from="n61" to="n71" type="2L30"/>
<edge id="e61-60" from="n61" to="n60" type="2L30"/>
<edge id="e61-62" from="n61" to="n62" type="2L30"/>
<edge id="e62-52" from="n62" to="n52" type="2L30"/>
<edge id="e62-72" from="n62" to="n72" type="2L30"/>
<edge id="e62-61" from="n62" to="n61" type="2L30"/>
<edge id="e62-63" from="n62" to="n63" type="2L30"/>
<edge id="e63-53" from="n63" to="n53" type="2L30"/>
<edge id="e63-73" from="n63" to="n73" type="2L30"/>
<edge id="e63-62" from="n63" to="n62" type="2L30"/>
<edge id="e63-64" from="n63" to="n64" type="2L30"/>
<edge id="e64-54" from="n64" to="n54" type="2L30"/>
<edge id="e64-74" from="n64" to="n74" type="2L30"/>
<edge id="e64-63" from="n64" to="n63" type="2L30"/>
<edge id="e64-65" from="n64" to="n65" type="2L30"/>
<edge id="e65-55" from="n65" to="n55" type="2L30"/>
<edge id="e65-75" from="n65" to="n75" type="2L30"/>
<edge id="e65-64" from="n65" to="n64" type="2L30"/>
<edge id="e65-66" from="n65" to="n66" type="2L30"/>
<edge id="e66-56" from="n66" to="n56" type="2L30"/>
<edge id="e66-76" from="n66" to="n76" type="2L30"/>
<edge id="e66-65" from="n66" to="n65" type="2L30"/>
<edge id="e66-67" from="n66" to="n67" type="2L30"/>
<edge id="e67-57" from="n67" to="n57" type="2L30"/>
<edge id="e67-77" from="n67" to="n77" type="2L30"/>
<edge id="e67-66" from="n67" to="n66" type="2L30"/>
<edge id="e67-68" from="n67" to="n68" type="2L30"/>
<edge id="e68-58" from="n68" to="n58" type="2L30"/>
<edge id="e68-78" from="n68" to="n78" type="2L30"/>
<edge id="e68-67" from="n68" to="n67" type="2L30"/>
<edge id="e68-69" from="n68" to="n69" type="2L30"/>
<edge id="e69-59" from="n69" to="n59" type="2L30"/>
<edge id="e69-79" from="n69" to="n79" type="2L30"/>
<edge id="e69-68" from="n69" to="n68" type="2L30"/>
<edge id="e70-60" from="n70" to="n60" type="2L30"/>
<edge id="e70-80" from="n70" to="n80" type="2L30"/>
<edge id="e70-71" from="n70" to="n71" type="2L30"/>
<edge id="e71-61" from="n71" to="n61" type="2L30"/>
<edge id="e71-81" from="n71" to="n81" type="2L30"/>
<edge id="e71-70" from="n71" to="n70" type="2L30"/>
<edge id="e71-72" from="n71" to="n72" type="2L30"/>
<edge id="e72-62" from="n72" to="n62" type="2L30"/>
<edge id="e72-82" from="n72" to="n82" type="2L30"/>
<edge id="e72-71" from="n72" to="n71" type="2L30"/>
<edge id="e72-73" from="n72" to="n73" type="2L30"/>
<edge id="e73-63" from="n73" to="n63" type="2L30"/>
<edge id="e73-83" from="n73" to="n83" type="2L30"/>
<edge id="e73-72" from="n73" to="n72" type="2L30"/>
<edge id="e73-74" from="n73" to="n74" type="2L30"/>
<edge id="e74-64" from="n74" to="n64" type="2L30"/>
<edge id="e74-84" from="n74" to="n84" type="2L30"/>
<edge id="e74-73" from="n74" to="n73" type="2L30"/>
<edge id="e74-75" from="n74" to="n75" type="2L30"/>
<edge id="e75-65" from="n75" to="n65" type="2L30"/>
<edge id="e75-85" from="n75" to="n85" type="2L30"/>
<edge id="e75-74" from="n75" to="n74" type="2L30"/>
<edge id="e75-76" from="n75" to="n76" type="2L30"/>
<edge id="e76-66" from="n76" to="n66" type="2L30"/>
<edge id="e76-86" from="n76" to="n86" type="2L30"/>
<edge id="e76-75" from="n76" to="n75" type="2L30"/>
<edge id="e76-77" from="n76" to="n77" type="2L30"/>
<edge id="e77-67" from="n77" to="n67" type="2L30"/>
<edge id="e77-87" from="n77" to="n87" type="2L30"/>
<edge id="e77-76" from="n77" to="n76" type="2L30"/>
<edge id="e77-78" from="n77" to="n78" type="2L30"/>
<edge id="e78-68" from="n78" to="n68" type="2L30"/>
<edge id="e78-88" from="n78" to="n88" type="2L30"/>
<edge id="e78-77" from="n78" to="n77" type="2L30"/>
<edge id="e78-79" from="n78" to="n79" type="2L30"/>
<edge id="e79-69" from="n79" to="n69" type="2L30"/>
<edge id="e79-89" from="n79" to="n89" type="2L30"/>
<edge id="e79-78" from="n79" to="n78" type="2L30"/>
<edge id="e80-70" from="n80" to="n70" type="2L30"/>
<edge id="e80-90" from="n80" to="n90" type="2L30"/>
<edge id="e80-81" from="n80" to="n81" type="2L30"/>
<edge id="e81-71" from="n81" to="n71" type="2L30"/>
<edge id="e81-91" from="n81" to="n91" type="2L30"/>
<edge id="e81-80" from="n81" to="n80" type="2L30"/>
<edge id="e81-82" from="n81" to="n82" type="2L30"/>
<edge id="e82-72" from="n82" to="n72" type="2L30"/>
<edge id="e82-92" from="n82" to="n92" type="2L30"/>
<edge id="e82-81" from="n82" to="n81" type="2L30"/>
<edge id="e82-83" from="n82" to="n83" type="2L30"/>
<edge id="e83-73" from="n83" to="n73" type="2L30"/>
<edge id="e83-93" from="n83" to="n93" type="2L30"/>
<edge id="e83-82" from="n83" to="n82" type="2L30"/>
<edge id="e83-84" from="n83" to="n84" type="2L30"/>
<edge id="e84-74" from="n84" to="n74" type="2L30"/>
<edge id="e84-94" from="n84" to="n94" type="2L30"/>
<edge id="e84-83" from="n84" to="n83" type="2L30"/>
<edge id="e84-85" from="n84" to="n85" type="2L30"/>
<edge id="e85-75" from="n85" to="n75" type="2L30"/>
<edge id="e85-95" from="n85" to="n95" type="2L30"/>
<edge id="e85-84" from="n85" to="n84" type="2L30"/>
<edge id="e85-86" from="n85" to="n86" type="2L30"/>
<edge id="e86-76" from="n86" to="n76" type="2L30"/>
<edge id="e86-96" from="n86" to="n96" type="2L30"/>
<edge id="e86-85" from="n86" to="n85" type="2L30"/>
<edge id="e86-87" from="n86" to="n87" type="2L30"/>
<edge id="e87-77" from="n87" to="n77" type="2L30"/>
<edge id="e87-97" from="n87" to="n97" type="2L30"/>
<edge id="e87-86" from="n87" to="n86" type="2L30"/>
<edge id="e87-88" from="n87" to="n88" type="2L30"/>
<edge id="e88-78" from="n88" to="n78" type="2L30"/>
<edge id="e88-98" from="n88" to="n98" type="2L30"/>
<edge id="e88-87" from="n88" to="n87" type="2L30"/>
<edge id="e88-89" from="n88" to="n89" type="2L30"/>
<edge id="e89-79" from="n89" to="n79" type="2L30"/>
<edge id="e89-99" from="n89" to="n99" type="2L30"/>
<edge id="e89-88" from="n89" to="n88" type="2L30"/>
<edge id="e90-80" from="n90" to="n80" type="2L30"/>
<edge id="e90-91" from="n90" to="n91" type="2L30"/>
<edge id="e91-81" from="n91" to="n81" type="2L30"/>
<edge id="e91-90" from="n91" to="n90" type="2L30"/>
<edge id="e91-92" from="n91" to="n92" type="2L30"/>
<edge id="e92-82" from="n92" to="n82" type="2L30"/>
<edge id="e92-91" from="n92" to="n91" type="2L30"/>
<edge id="e92-93" from="n92" to="n93" type="2L30"/>
<edge id="e93-83" from="n93" to="n83" type="2L30"/>
<edge id="e93-92" from="n93" to="n92" type="2L30"/>
<edge id="e93-94" from="n93" to="n94" type="2L30"/>
<edge id="e94-84" from="n94" to="n84" type="2L30"/>
<edge id="e94-93" from="n94" to="n93" type="2L30"/>
<edge id="e94-95" from="n94" to="n95" type="2L30"/>
<edge id="e95-85" from="n95" to="n85" type="2L30"/>
<edge id="e95-94" from="n95" to="n94" type="2L30"/>
<edge id="e95-96" from="n95" to="n96" type="2L30"/>
<edge id="e96-86" from="n96" to="n86" type="2L30"/>
<edge id="e96-95" from="n96" to="n95" type="2L30"/>
<edge id="e96-97" from="n96" to="n97" type="2L30"/>
<edge id="e97-87" from="n97" to="n87" type="2L30"/>
<edge id="e97-96" from="n97" to="n96" type="2L30"/>
<edge id="e97-98" from="n97" to="n98" type="2L30"/>
<edge id="e98-88" from="n98" to="n88" type="2L30"/>
<edge id="e98-97" from="n98" to="n97" type="2L30"/>
<edge id="e98-99" from="n98" to="n99" type="2L30"/>
<edge id="e99-89" from="n99" to="n89" type="2L30"/>
<edge id="e99-98" from="n99" to="n98" type="2L30"/>
</edges>