<?xml version="1.0" encoding="UTF-8"?>

<!-- generated on 11/25/18 10:34:23 by Eclipse SUMO netconvert Version 1.0.1
<configuration xmlns:xsi="http://www.w3.org/2001/XMLSchema-instance" xsi:noNamespaceSchemaLocation="http://sumo.dlr.de/xsd/netconvertConfiguration.xsd">

    <input>
        <node-files value="test.nod.xml"/>
        <edge-files value="test.edg.xml"/>
        <type-files value="testGridType.type.xml"/>
    </input>

    <output>
        <output-file value="testNewGrid.net.xml"/>
    </output>

</configuration>
-->

<net version="1.0" junctionCornerDetail="5" limitTurnSpeed="5.50" xmlns:xsi="http://www.w3.org/2001/XMLSchema-instance" xsi:noNamespaceSchemaLocation="http://sumo.dlr.de/xsd/net_file.xsd">

    <location netOffset="0.00,0.00" convBoundary="0.00,0.00,1800.00,1800.00" origBoundary="0.00,0.00,1800.00,1800.00" projParameter="!"/>

    <type id="2L30" priority="2" numLanes="2" speed="30.00" oneway="0"/>
    <type id="2L50" priority="2" numLanes="4" speed="50.00"/>

    <edge id=":n0_0" function="internal">
        <lane id=":n0_0_0" index="0" speed="8.96" length="18.06" shape="-4.80,6.40 -4.10,1.50 -2.00,-2.00 1.50,-4.10 6.40,-4.80"/>
    </edge>
    <edge id=":n0_1" function="internal">
        <lane id=":n0_1_0" index="0" speed="7.66" length="12.90" shape="-1.60,6.40 -1.10,2.90 0.40,0.40 2.90,-1.10 6.40,-1.60"/>
    </edge>
    <edge id=":n0_2" function="internal">
        <lane id=":n0_2_0" index="0" speed="3.65" length="2.56" shape="-1.60,6.40 -0.80,5.20 0.00,4.80 0.20,4.90"/>
    </edge>
    <edge id=":n0_6" function="internal">
        <lane id=":n0_6_0" index="0" speed="3.65" length="2.12" shape="0.20,4.90 0.80,5.20 1.60,6.40"/>
    </edge>
    <edge id=":n0_3" function="internal">
        <lane id=":n0_3_0" index="0" speed="3.90" length="2.58" shape="6.40,4.80 5.70,4.90 5.20,5.20 4.90,5.70 4.80,6.40"/>
    </edge>
    <edge id=":n0_4" function="internal">
        <lane id=":n0_4_0" index="0" speed="6.08" length="7.74" shape="6.40,1.60 4.30,1.90 2.80,2.80 1.90,4.30 1.60,6.40"/>
    </edge>
    <edge id=":n0_5" function="internal">
        <lane id=":n0_5_0" index="0" speed="3.65" length="2.08" shape="6.40,1.60 5.20,0.80 4.91,0.23"/>
    </edge>
    <edge id=":n0_7" function="internal">
        <lane id=":n0_7_0" index="0" speed="3.65" length="2.59" shape="4.91,0.23 4.80,0.00 5.20,-0.80 6.40,-1.60"/>
    </edge>
    <edge id=":n1_0" function="internal">
        <lane id=":n1_0_0" index="0" speed="30.00" length="20.80" shape="-4.80,210.40 -4.80,189.60"/>
        <lane id=":n1_0_1" index="1" speed="30.00" length="20.80" shape="-1.60,210.40 -1.60,189.60"/>
    </edge>
    <edge id=":n1_2" function="internal">
        <lane id=":n1_2_0" index="0" speed="9.26" length="6.96" shape="-1.60,210.40 -0.85,205.15 -0.00,203.73"/>
    </edge>
    <edge id=":n1_3" function="internal">
        <lane id=":n1_3_0" index="0" speed="3.65" length="2.34" shape="-1.60,210.40 -0.80,209.20 0.00,208.80"/>
    </edge>
    <edge id=":n1_12" function="internal">
        <lane id=":n1_12_0" index="0" speed="9.26" length="12.40" shape="-0.00,203.73 1.40,201.40 5.15,199.15 10.40,198.40"/>
    </edge>
    <edge id=":n1_13" function="internal">
        <lane id=":n1_13_0" index="0" speed="3.65" length="2.34" shape="0.00,208.80 0.80,209.20 1.60,210.40"/>
    </edge>
    <edge id=":n1_4" function="internal">
        <lane id=":n1_4_0" index="0" speed="6.51" length="9.03" shape="10.40,204.80 7.95,205.15 6.20,206.20 5.15,207.95 4.80,210.40"/>
    </edge>
    <edge id=":n1_5" function="internal">
        <lane id=":n1_5_0" index="0" speed="8.00" length="14.19" shape="10.40,201.60 6.55,202.15 3.80,203.80 2.15,206.55 1.60,210.40"/>
    </edge>
    <edge id=":n1_6" function="internal">
        <lane id=":n1_6_0" index="0" speed="9.26" length="19.35" shape="10.40,201.60 5.15,200.85 1.40,198.60 -0.85,194.85 -1.60,189.60"/>
    </edge>
    <edge id=":n1_7" function="internal">
        <lane id=":n1_7_0" index="0" speed="3.65" length="2.34" shape="10.40,201.60 9.20,200.80 8.80,200.00"/>
    </edge>
    <edge id=":n1_14" function="internal">
        <lane id=":n1_14_0" index="0" speed="3.65" length="2.34" shape="8.80,200.00 9.20,199.20 10.40,198.40"/>
    </edge>
    <edge id=":n1_8" function="internal">
        <lane id=":n1_8_0" index="0" speed="6.51" length="9.03" shape="4.80,189.60 5.15,192.05 6.20,193.80 7.95,194.85 10.40,195.20"/>
    </edge>
    <edge id=":n1_9" function="internal">
        <lane id=":n1_9_0" index="0" speed="30.00" length="20.80" shape="4.80,189.60 4.80,210.40"/>
        <lane id=":n1_9_1" index="1" speed="30.00" length="20.80" shape="1.60,189.60 1.60,210.40"/>
    </edge>
    <edge id=":n1_11" function="internal">
        <lane id=":n1_11_0" index="0" speed="3.65" length="2.34" shape="1.60,189.60 0.80,190.80 0.00,191.20"/>
    </edge>
    <edge id=":n1_15" function="internal">
        <lane id=":n1_15_0" index="0" speed="3.65" length="2.34" shape="0.00,191.20 -0.80,190.80 -1.60,189.60"/>
    </edge>
    <edge id=":n10_0" function="internal">
        <lane id=":n10_0_0" index="0" speed="6.51" length="9.03" shape="195.20,10.40 194.85,7.95 193.80,6.20 192.05,5.15 189.60,4.80"/>
    </edge>
    <edge id=":n10_1" function="internal">
        <lane id=":n10_1_0" index="0" speed="8.00" length="14.19" shape="198.40,10.40 197.85,6.55 196.20,3.80 193.45,2.15 189.60,1.60"/>
    </edge>
    <edge id=":n10_2" function="internal">
        <lane id=":n10_2_0" index="0" speed="9.26" length="19.35" shape="198.40,10.40 199.15,5.15 201.40,1.40 205.15,-0.85 210.40,-1.60"/>
    </edge>
    <edge id=":n10_3" function="internal">
        <lane id=":n10_3_0" index="0" speed="3.65" length="2.34" shape="198.40,10.40 199.20,9.20 200.00,8.80"/>
    </edge>
    <edge id=":n10_12" function="internal">
        <lane id=":n10_12_0" index="0" speed="3.65" length="2.34" shape="200.00,8.80 200.80,9.20 201.60,10.40"/>
    </edge>
    <edge id=":n10_4" function="internal">
        <lane id=":n10_4_0" index="0" speed="6.51" length="9.03" shape="210.40,4.80 207.95,5.15 206.20,6.20 205.15,7.95 204.80,10.40"/>
    </edge>
    <edge id=":n10_5" function="internal">
        <lane id=":n10_5_0" index="0" speed="30.00" length="20.80" shape="210.40,4.80 189.60,4.80"/>
        <lane id=":n10_5_1" index="1" speed="30.00" length="20.80" shape="210.40,1.60 189.60,1.60"/>
    </edge>
    <edge id=":n10_7" function="internal">
        <lane id=":n10_7_0" index="0" speed="3.65" length="2.34" shape="210.40,1.60 209.20,0.80 208.80,0.00"/>
    </edge>
    <edge id=":n10_13" function="internal">
        <lane id=":n10_13_0" index="0" speed="3.65" length="2.34" shape="208.80,0.00 209.20,-0.80 210.40,-1.60"/>
    </edge>
    <edge id=":n10_8" function="internal">
        <lane id=":n10_8_0" index="0" speed="30.00" length="20.80" shape="189.60,-4.80 210.40,-4.80"/>
        <lane id=":n10_8_1" index="1" speed="30.00" length="20.80" shape="189.60,-1.60 210.40,-1.60"/>
    </edge>
    <edge id=":n10_10" function="internal">
        <lane id=":n10_10_0" index="0" speed="9.26" length="6.96" shape="189.60,-1.60 194.85,-0.85 196.27,0.00"/>
    </edge>
    <edge id=":n10_11" function="internal">
        <lane id=":n10_11_0" index="0" speed="3.65" length="2.34" shape="189.60,-1.60 190.80,-0.80 191.20,0.00"/>
    </edge>
    <edge id=":n10_14" function="internal">
        <lane id=":n10_14_0" index="0" speed="9.26" length="12.40" shape="196.27,0.00 198.60,1.40 200.85,5.15 201.60,10.40"/>
    </edge>
    <edge id=":n10_15" function="internal">
        <lane id=":n10_15_0" index="0" speed="3.65" length="2.34" shape="191.20,0.00 190.80,0.80 189.60,1.60"/>
    </edge>
    <edge id=":n11_0" function="internal">
        <lane id=":n11_0_0" index="0" speed="6.51" length="9.03" shape="195.20,210.40 194.85,207.95 193.80,206.20 192.05,205.15 189.60,204.80"/>
    </edge>
    <edge id=":n11_1" function="internal">
        <lane id=":n11_1_0" index="0" speed="30.00" length="20.80" shape="195.20,210.40 195.20,189.60"/>
        <lane id=":n11_1_1" index="1" speed="30.00" length="20.80" shape="198.40,210.40 198.40,189.60"/>
    </edge>
    <edge id=":n11_3" function="internal">
        <lane id=":n11_3_0" index="0" speed="9.26" length="6.96" shape="198.40,210.40 199.15,205.15 200.00,203.73"/>
    </edge>
    <edge id=":n11_4" function="internal">
        <lane id=":n11_4_0" index="0" speed="3.65" length="2.34" shape="198.40,210.40 199.20,209.20 200.00,208.80"/>
    </edge>
    <edge id=":n11_20" function="internal">
        <lane id=":n11_20_0" index="0" speed="9.26" length="12.40" shape="200.00,203.73 201.40,201.40 205.15,199.15 210.40,198.40"/>
    </edge>
    <edge id=":n11_21" function="internal">
        <lane id=":n11_21_0" index="0" speed="3.65" length="2.34" shape="200.00,208.80 200.80,209.20 201.60,210.40"/>
    </edge>
    <edge id=":n11_5" function="internal">
        <lane id=":n11_5_0" index="0" speed="6.51" length="9.03" shape="210.40,204.80 207.95,205.15 206.20,206.20 205.15,207.95 204.80,210.40"/>
    </edge>
    <edge id=":n11_6" function="internal">
        <lane id=":n11_6_0" index="0" speed="30.00" length="20.80" shape="210.40,204.80 189.60,204.80"/>
        <lane id=":n11_6_1" index="1" speed="30.00" length="20.80" shape="210.40,201.60 189.60,201.60"/>
    </edge>
    <edge id=":n11_8" function="internal">
        <lane id=":n11_8_0" index="0" speed="9.26" length="6.96" shape="210.40,201.60 205.15,200.85 203.73,200.00"/>
    </edge>
    <edge id=":n11_9" function="internal">
        <lane id=":n11_9_0" index="0" speed="3.65" length="2.34" shape="210.40,201.60 209.20,200.80 208.80,200.00"/>
    </edge>
    <edge id=":n11_22" function="internal">
        <lane id=":n11_22_0" index="0" speed="9.26" length="12.40" shape="203.73,200.00 201.40,198.60 199.15,194.85 198.40,189.60"/>
    </edge>
    <edge id=":n11_23" function="internal">
        <lane id=":n11_23_0" index="0" speed="3.65" length="2.34" shape="208.80,200.00 209.20,199.20 210.40,198.40"/>
    </edge>
    <edge id=":n11_10" function="internal">
        <lane id=":n11_10_0" index="0" speed="6.51" length="9.03" shape="204.80,189.60 205.15,192.05 206.20,193.80 207.95,194.85 210.40,195.20"/>
    </edge>
    <edge id=":n11_11" function="internal">
        <lane id=":n11_11_0" index="0" speed="30.00" length="20.80" shape="204.80,189.60 204.80,210.40"/>
        <lane id=":n11_11_1" index="1" speed="30.00" length="20.80" shape="201.60,189.60 201.60,210.40"/>
    </edge>
    <edge id=":n11_13" function="internal">
        <lane id=":n11_13_0" index="0" speed="9.26" length="6.96" shape="201.60,189.60 200.85,194.85 200.00,196.27"/>
    </edge>
    <edge id=":n11_14" function="internal">
        <lane id=":n11_14_0" index="0" speed="3.65" length="2.34" shape="201.60,189.60 200.80,190.80 200.00,191.20"/>
    </edge>
    <edge id=":n11_24" function="internal">
        <lane id=":n11_24_0" index="0" speed="9.26" length="12.40" shape="200.00,196.27 198.60,198.60 194.85,200.85 189.60,201.60"/>
    </edge>
    <edge id=":n11_25" function="internal">
        <lane id=":n11_25_0" index="0" speed="3.65" length="2.34" shape="200.00,191.20 199.20,190.80 198.40,189.60"/>
    </edge>
    <edge id=":n11_15" function="internal">
        <lane id=":n11_15_0" index="0" speed="6.51" length="9.03" shape="189.60,195.20 192.05,194.85 193.80,193.80 194.85,192.05 195.20,189.60"/>
    </edge>
    <edge id=":n11_16" function="internal">
        <lane id=":n11_16_0" index="0" speed="30.00" length="20.80" shape="189.60,195.20 210.40,195.20"/>
        <lane id=":n11_16_1" index="1" speed="30.00" length="20.80" shape="189.60,198.40 210.40,198.40"/>
    </edge>
    <edge id=":n11_18" function="internal">
        <lane id=":n11_18_0" index="0" speed="9.26" length="6.96" shape="189.60,198.40 194.85,199.15 196.27,200.00"/>
    </edge>
    <edge id=":n11_19" function="internal">
        <lane id=":n11_19_0" index="0" speed="3.65" length="2.34" shape="189.60,198.40 190.80,199.20 191.20,200.00"/>
    </edge>
    <edge id=":n11_26" function="internal">
        <lane id=":n11_26_0" index="0" speed="9.26" length="12.40" shape="196.27,200.00 198.60,201.40 200.85,205.15 201.60,210.40"/>
    </edge>
    <edge id=":n11_27" function="internal">
        <lane id=":n11_27_0" index="0" speed="3.65" length="2.34" shape="191.20,200.00 190.80,200.80 189.60,201.60"/>
    </edge>
    <edge id=":n12_0" function="internal">
        <lane id=":n12_0_0" index="0" speed="6.51" length="9.03" shape="195.20,410.40 194.85,407.95 193.80,406.20 192.05,405.15 189.60,404.80"/>
    </edge>
    <edge id=":n12_1" function="internal">
        <lane id=":n12_1_0" index="0" speed="30.00" length="20.80" shape="195.20,410.40 195.20,389.60"/>
        <lane id=":n12_1_1" index="1" speed="30.00" length="20.80" shape="198.40,410.40 198.40,389.60"/>
    </edge>
    <edge id=":n12_3" function="internal">
        <lane id=":n12_3_0" index="0" speed="9.26" length="6.96" shape="198.40,410.40 199.15,405.15 200.00,403.73"/>
    </edge>
    <edge id=":n12_4" function="internal">
        <lane id=":n12_4_0" index="0" speed="3.65" length="2.34" shape="198.40,410.40 199.20,409.20 200.00,408.80"/>
    </edge>
    <edge id=":n12_20" function="internal">
        <lane id=":n12_20_0" index="0" speed="9.26" length="12.40" shape="200.00,403.73 201.40,401.40 205.15,399.15 210.40,398.40"/>
    </edge>
    <edge id=":n12_21" function="internal">
        <lane id=":n12_21_0" index="0" speed="3.65" length="2.34" shape="200.00,408.80 200.80,409.20 201.60,410.40"/>
    </edge>
    <edge id=":n12_5" function="internal">
        <lane id=":n12_5_0" index="0" speed="6.51" length="9.03" shape="210.40,404.80 207.95,405.15 206.20,406.20 205.15,407.95 204.80,410.40"/>
    </edge>
    <edge id=":n12_6" function="internal">
        <lane id=":n12_6_0" index="0" speed="30.00" length="20.80" shape="210.40,404.80 189.60,404.80"/>
        <lane id=":n12_6_1" index="1" speed="30.00" length="20.80" shape="210.40,401.60 189.60,401.60"/>
    </edge>
    <edge id=":n12_8" function="internal">
        <lane id=":n12_8_0" index="0" speed="9.26" length="6.96" shape="210.40,401.60 205.15,400.85 203.73,400.00"/>
    </edge>
    <edge id=":n12_9" function="internal">
        <lane id=":n12_9_0" index="0" speed="3.65" length="2.34" shape="210.40,401.60 209.20,400.80 208.80,400.00"/>
    </edge>
    <edge id=":n12_22" function="internal">
        <lane id=":n12_22_0" index="0" speed="9.26" length="12.40" shape="203.73,400.00 201.40,398.60 199.15,394.85 198.40,389.60"/>
    </edge>
    <edge id=":n12_23" function="internal">
        <lane id=":n12_23_0" index="0" speed="3.65" length="2.34" shape="208.80,400.00 209.20,399.20 210.40,398.40"/>
    </edge>
    <edge id=":n12_10" function="internal">
        <lane id=":n12_10_0" index="0" speed="6.51" length="9.03" shape="204.80,389.60 205.15,392.05 206.20,393.80 207.95,394.85 210.40,395.20"/>
    </edge>
    <edge id=":n12_11" function="internal">
        <lane id=":n12_11_0" index="0" speed="30.00" length="20.80" shape="204.80,389.60 204.80,410.40"/>
        <lane id=":n12_11_1" index="1" speed="30.00" length="20.80" shape="201.60,389.60 201.60,410.40"/>
    </edge>
    <edge id=":n12_13" function="internal">
        <lane id=":n12_13_0" index="0" speed="9.26" length="6.96" shape="201.60,389.60 200.85,394.85 200.00,396.27"/>
    </edge>
    <edge id=":n12_14" function="internal">
        <lane id=":n12_14_0" index="0" speed="3.65" length="2.34" shape="201.60,389.60 200.80,390.80 200.00,391.20"/>
    </edge>
    <edge id=":n12_24" function="internal">
        <lane id=":n12_24_0" index="0" speed="9.26" length="12.40" shape="200.00,396.27 198.60,398.60 194.85,400.85 189.60,401.60"/>
    </edge>
    <edge id=":n12_25" function="internal">
        <lane id=":n12_25_0" index="0" speed="3.65" length="2.34" shape="200.00,391.20 199.20,390.80 198.40,389.60"/>
    </edge>
    <edge id=":n12_15" function="internal">
        <lane id=":n12_15_0" index="0" speed="6.51" length="9.03" shape="189.60,395.20 192.05,394.85 193.80,393.80 194.85,392.05 195.20,389.60"/>
    </edge>
    <edge id=":n12_16" function="internal">
        <lane id=":n12_16_0" index="0" speed="30.00" length="20.80" shape="189.60,395.20 210.40,395.20"/>
        <lane id=":n12_16_1" index="1" speed="30.00" length="20.80" shape="189.60,398.40 210.40,398.40"/>
    </edge>
    <edge id=":n12_18" function="internal">
        <lane id=":n12_18_0" index="0" speed="9.26" length="6.96" shape="189.60,398.40 194.85,399.15 196.27,400.00"/>
    </edge>
    <edge id=":n12_19" function="internal">
        <lane id=":n12_19_0" index="0" speed="3.65" length="2.34" shape="189.60,398.40 190.80,399.20 191.20,400.00"/>
    </edge>
    <edge id=":n12_26" function="internal">
        <lane id=":n12_26_0" index="0" speed="9.26" length="12.40" shape="196.27,400.00 198.60,401.40 200.85,405.15 201.60,410.40"/>
    </edge>
    <edge id=":n12_27" function="internal">
        <lane id=":n12_27_0" index="0" speed="3.65" length="2.34" shape="191.20,400.00 190.80,400.80 189.60,401.60"/>
    </edge>
    <edge id=":n13_0" function="internal">
        <lane id=":n13_0_0" index="0" speed="6.51" length="9.03" shape="195.20,610.40 194.85,607.95 193.80,606.20 192.05,605.15 189.60,604.80"/>
    </edge>
    <edge id=":n13_1" function="internal">
        <lane id=":n13_1_0" index="0" speed="30.00" length="20.80" shape="195.20,610.40 195.20,589.60"/>
        <lane id=":n13_1_1" index="1" speed="30.00" length="20.80" shape="198.40,610.40 198.40,589.60"/>
    </edge>
    <edge id=":n13_3" function="internal">
        <lane id=":n13_3_0" index="0" speed="9.26" length="6.96" shape="198.40,610.40 199.15,605.15 200.00,603.73"/>
    </edge>
    <edge id=":n13_4" function="internal">
        <lane id=":n13_4_0" index="0" speed="3.65" length="2.34" shape="198.40,610.40 199.20,609.20 200.00,608.80"/>
    </edge>
    <edge id=":n13_20" function="internal">
        <lane id=":n13_20_0" index="0" speed="9.26" length="12.40" shape="200.00,603.73 201.40,601.40 205.15,599.15 210.40,598.40"/>
    </edge>
    <edge id=":n13_21" function="internal">
        <lane id=":n13_21_0" index="0" speed="3.65" length="2.34" shape="200.00,608.80 200.80,609.20 201.60,610.40"/>
    </edge>
    <edge id=":n13_5" function="internal">
        <lane id=":n13_5_0" index="0" speed="6.51" length="9.03" shape="210.40,604.80 207.95,605.15 206.20,606.20 205.15,607.95 204.80,610.40"/>
    </edge>
    <edge id=":n13_6" function="internal">
        <lane id=":n13_6_0" index="0" speed="30.00" length="20.80" shape="210.40,604.80 189.60,604.80"/>
        <lane id=":n13_6_1" index="1" speed="30.00" length="20.80" shape="210.40,601.60 189.60,601.60"/>
    </edge>
    <edge id=":n13_8" function="internal">
        <lane id=":n13_8_0" index="0" speed="9.26" length="6.96" shape="210.40,601.60 205.15,600.85 203.73,600.00"/>
    </edge>
    <edge id=":n13_9" function="internal">
        <lane id=":n13_9_0" index="0" speed="3.65" length="2.34" shape="210.40,601.60 209.20,600.80 208.80,600.00"/>
    </edge>
    <edge id=":n13_22" function="internal">
        <lane id=":n13_22_0" index="0" speed="9.26" length="12.40" shape="203.73,600.00 201.40,598.60 199.15,594.85 198.40,589.60"/>
    </edge>
    <edge id=":n13_23" function="internal">
        <lane id=":n13_23_0" index="0" speed="3.65" length="2.34" shape="208.80,600.00 209.20,599.20 210.40,598.40"/>
    </edge>
    <edge id=":n13_10" function="internal">
        <lane id=":n13_10_0" index="0" speed="6.51" length="9.03" shape="204.80,589.60 205.15,592.05 206.20,593.80 207.95,594.85 210.40,595.20"/>
    </edge>
    <edge id=":n13_11" function="internal">
        <lane id=":n13_11_0" index="0" speed="30.00" length="20.80" shape="204.80,589.60 204.80,610.40"/>
        <lane id=":n13_11_1" index="1" speed="30.00" length="20.80" shape="201.60,589.60 201.60,610.40"/>
    </edge>
    <edge id=":n13_13" function="internal">
        <lane id=":n13_13_0" index="0" speed="9.26" length="6.96" shape="201.60,589.60 200.85,594.85 200.00,596.27"/>
    </edge>
    <edge id=":n13_14" function="internal">
        <lane id=":n13_14_0" index="0" speed="3.65" length="2.34" shape="201.60,589.60 200.80,590.80 200.00,591.20"/>
    </edge>
    <edge id=":n13_24" function="internal">
        <lane id=":n13_24_0" index="0" speed="9.26" length="12.40" shape="200.00,596.27 198.60,598.60 194.85,600.85 189.60,601.60"/>
    </edge>
    <edge id=":n13_25" function="internal">
        <lane id=":n13_25_0" index="0" speed="3.65" length="2.34" shape="200.00,591.20 199.20,590.80 198.40,589.60"/>
    </edge>
    <edge id=":n13_15" function="internal">
        <lane id=":n13_15_0" index="0" speed="6.51" length="9.03" shape="189.60,595.20 192.05,594.85 193.80,593.80 194.85,592.05 195.20,589.60"/>
    </edge>
    <edge id=":n13_16" function="internal">
        <lane id=":n13_16_0" index="0" speed="30.00" length="20.80" shape="189.60,595.20 210.40,595.20"/>
        <lane id=":n13_16_1" index="1" speed="30.00" length="20.80" shape="189.60,598.40 210.40,598.40"/>
    </edge>
    <edge id=":n13_18" function="internal">
        <lane id=":n13_18_0" index="0" speed="9.26" length="6.96" shape="189.60,598.40 194.85,599.15 196.27,600.00"/>
    </edge>
    <edge id=":n13_19" function="internal">
        <lane id=":n13_19_0" index="0" speed="3.65" length="2.34" shape="189.60,598.40 190.80,599.20 191.20,600.00"/>
    </edge>
    <edge id=":n13_26" function="internal">
        <lane id=":n13_26_0" index="0" speed="9.26" length="12.40" shape="196.27,600.00 198.60,601.40 200.85,605.15 201.60,610.40"/>
    </edge>
    <edge id=":n13_27" function="internal">
        <lane id=":n13_27_0" index="0" speed="3.65" length="2.34" shape="191.20,600.00 190.80,600.80 189.60,601.60"/>
    </edge>
    <edge id=":n14_0" function="internal">
        <lane id=":n14_0_0" index="0" speed="6.51" length="9.03" shape="195.20,810.40 194.85,807.95 193.80,806.20 192.05,805.15 189.60,804.80"/>
    </edge>
    <edge id=":n14_1" function="internal">
        <lane id=":n14_1_0" index="0" speed="30.00" length="20.80" shape="195.20,810.40 195.20,789.60"/>
        <lane id=":n14_1_1" index="1" speed="30.00" length="20.80" shape="198.40,810.40 198.40,789.60"/>
    </edge>
    <edge id=":n14_3" function="internal">
        <lane id=":n14_3_0" index="0" speed="9.26" length="6.96" shape="198.40,810.40 199.15,805.15 200.00,803.73"/>
    </edge>
    <edge id=":n14_4" function="internal">
        <lane id=":n14_4_0" index="0" speed="3.65" length="2.34" shape="198.40,810.40 199.20,809.20 200.00,808.80"/>
    </edge>
    <edge id=":n14_20" function="internal">
        <lane id=":n14_20_0" index="0" speed="9.26" length="12.40" shape="200.00,803.73 201.40,801.40 205.15,799.15 210.40,798.40"/>
    </edge>
    <edge id=":n14_21" function="internal">
        <lane id=":n14_21_0" index="0" speed="3.65" length="2.34" shape="200.00,808.80 200.80,809.20 201.60,810.40"/>
    </edge>
    <edge id=":n14_5" function="internal">
        <lane id=":n14_5_0" index="0" speed="6.51" length="9.03" shape="210.40,804.80 207.95,805.15 206.20,806.20 205.15,807.95 204.80,810.40"/>
    </edge>
    <edge id=":n14_6" function="internal">
        <lane id=":n14_6_0" index="0" speed="30.00" length="20.80" shape="210.40,804.80 189.60,804.80"/>
        <lane id=":n14_6_1" index="1" speed="30.00" length="20.80" shape="210.40,801.60 189.60,801.60"/>
    </edge>
    <edge id=":n14_8" function="internal">
        <lane id=":n14_8_0" index="0" speed="9.26" length="6.96" shape="210.40,801.60 205.15,800.85 203.73,800.00"/>
    </edge>
    <edge id=":n14_9" function="internal">
        <lane id=":n14_9_0" index="0" speed="3.65" length="2.34" shape="210.40,801.60 209.20,800.80 208.80,800.00"/>
    </edge>
    <edge id=":n14_22" function="internal">
        <lane id=":n14_22_0" index="0" speed="9.26" length="12.40" shape="203.73,800.00 201.40,798.60 199.15,794.85 198.40,789.60"/>
    </edge>
    <edge id=":n14_23" function="internal">
        <lane id=":n14_23_0" index="0" speed="3.65" length="2.34" shape="208.80,800.00 209.20,799.20 210.40,798.40"/>
    </edge>
    <edge id=":n14_10" function="internal">
        <lane id=":n14_10_0" index="0" speed="6.51" length="9.03" shape="204.80,789.60 205.15,792.05 206.20,793.80 207.95,794.85 210.40,795.20"/>
    </edge>
    <edge id=":n14_11" function="internal">
        <lane id=":n14_11_0" index="0" speed="30.00" length="20.80" shape="204.80,789.60 204.80,810.40"/>
        <lane id=":n14_11_1" index="1" speed="30.00" length="20.80" shape="201.60,789.60 201.60,810.40"/>
    </edge>
    <edge id=":n14_13" function="internal">
        <lane id=":n14_13_0" index="0" speed="9.26" length="6.96" shape="201.60,789.60 200.85,794.85 200.00,796.27"/>
    </edge>
    <edge id=":n14_14" function="internal">
        <lane id=":n14_14_0" index="0" speed="3.65" length="2.34" shape="201.60,789.60 200.80,790.80 200.00,791.20"/>
    </edge>
    <edge id=":n14_24" function="internal">
        <lane id=":n14_24_0" index="0" speed="9.26" length="12.40" shape="200.00,796.27 198.60,798.60 194.85,800.85 189.60,801.60"/>
    </edge>
    <edge id=":n14_25" function="internal">
        <lane id=":n14_25_0" index="0" speed="3.65" length="2.34" shape="200.00,791.20 199.20,790.80 198.40,789.60"/>
    </edge>
    <edge id=":n14_15" function="internal">
        <lane id=":n14_15_0" index="0" speed="6.51" length="9.03" shape="189.60,795.20 192.05,794.85 193.80,793.80 194.85,792.05 195.20,789.60"/>
    </edge>
    <edge id=":n14_16" function="internal">
        <lane id=":n14_16_0" index="0" speed="30.00" length="20.80" shape="189.60,795.20 210.40,795.20"/>
        <lane id=":n14_16_1" index="1" speed="30.00" length="20.80" shape="189.60,798.40 210.40,798.40"/>
    </edge>
    <edge id=":n14_18" function="internal">
        <lane id=":n14_18_0" index="0" speed="9.26" length="6.96" shape="189.60,798.40 194.85,799.15 196.27,800.00"/>
    </edge>
    <edge id=":n14_19" function="internal">
        <lane id=":n14_19_0" index="0" speed="3.65" length="2.34" shape="189.60,798.40 190.80,799.20 191.20,800.00"/>
    </edge>
    <edge id=":n14_26" function="internal">
        <lane id=":n14_26_0" index="0" speed="9.26" length="12.40" shape="196.27,800.00 198.60,801.40 200.85,805.15 201.60,810.40"/>
    </edge>
    <edge id=":n14_27" function="internal">
        <lane id=":n14_27_0" index="0" speed="3.65" length="2.34" shape="191.20,800.00 190.80,800.80 189.60,801.60"/>
    </edge>
    <edge id=":n15_0" function="internal">
        <lane id=":n15_0_0" index="0" speed="6.51" length="9.03" shape="195.20,1010.40 194.85,1007.95 193.80,1006.20 192.05,1005.15 189.60,1004.80"/>
    </edge>
    <edge id=":n15_1" function="internal">
        <lane id=":n15_1_0" index="0" speed="30.00" length="20.80" shape="195.20,1010.40 195.20,989.60"/>
        <lane id=":n15_1_1" index="1" speed="30.00" length="20.80" shape="198.40,1010.40 198.40,989.60"/>
    </edge>
    <edge id=":n15_3" function="internal">
        <lane id=":n15_3_0" index="0" speed="9.26" length="6.96" shape="198.40,1010.40 199.15,1005.15 200.00,1003.73"/>
    </edge>
    <edge id=":n15_4" function="internal">
        <lane id=":n15_4_0" index="0" speed="3.65" length="2.34" shape="198.40,1010.40 199.20,1009.20 200.00,1008.80"/>
    </edge>
    <edge id=":n15_20" function="internal">
        <lane id=":n15_20_0" index="0" speed="9.26" length="12.40" shape="200.00,1003.73 201.40,1001.40 205.15,999.15 210.40,998.40"/>
    </edge>
    <edge id=":n15_21" function="internal">
        <lane id=":n15_21_0" index="0" speed="3.65" length="2.34" shape="200.00,1008.80 200.80,1009.20 201.60,1010.40"/>
    </edge>
    <edge id=":n15_5" function="internal">
        <lane id=":n15_5_0" index="0" speed="6.51" length="9.03" shape="210.40,1004.80 207.95,1005.15 206.20,1006.20 205.15,1007.95 204.80,1010.40"/>
    </edge>
    <edge id=":n15_6" function="internal">
        <lane id=":n15_6_0" index="0" speed="30.00" length="20.80" shape="210.40,1004.80 189.60,1004.80"/>
        <lane id=":n15_6_1" index="1" speed="30.00" length="20.80" shape="210.40,1001.60 189.60,1001.60"/>
    </edge>
    <edge id=":n15_8" function="internal">
        <lane id=":n15_8_0" index="0" speed="9.26" length="6.96" shape="210.40,1001.60 205.15,1000.85 203.73,1000.00"/>
    </edge>
    <edge id=":n15_9" function="internal">
        <lane id=":n15_9_0" index="0" speed="3.65" length="2.34" shape="210.40,1001.60 209.20,1000.80 208.80,1000.00"/>
    </edge>
    <edge id=":n15_22" function="internal">
        <lane id=":n15_22_0" index="0" speed="9.26" length="12.40" shape="203.73,1000.00 201.40,998.60 199.15,994.85 198.40,989.60"/>
    </edge>
    <edge id=":n15_23" function="internal">
        <lane id=":n15_23_0" index="0" speed="3.65" length="2.34" shape="208.80,1000.00 209.20,999.20 210.40,998.40"/>
    </edge>
    <edge id=":n15_10" function="internal">
        <lane id=":n15_10_0" index="0" speed="6.51" length="9.03" shape="204.80,989.60 205.15,992.05 206.20,993.80 207.95,994.85 210.40,995.20"/>
    </edge>
    <edge id=":n15_11" function="internal">
        <lane id=":n15_11_0" index="0" speed="30.00" length="20.80" shape="204.80,989.60 204.80,1010.40"/>
        <lane id=":n15_11_1" index="1" speed="30.00" length="20.80" shape="201.60,989.60 201.60,1010.40"/>
    </edge>
    <edge id=":n15_13" function="internal">
        <lane id=":n15_13_0" index="0" speed="9.26" length="6.96" shape="201.60,989.60 200.85,994.85 200.00,996.27"/>
    </edge>