<configuration>

<input>
<net-file value="testNewGrid.net.xml"/>
<route-files value="testNewGrid.rou.xml"/>
</input>
<output> 
   <netstate-dump value="netstate-outputNewGrid.xml" />
</output>
<time>
<begin value="0"/>
<end value="301"/>
</time>

</configuration>